# generated using pymatgen
data_Li23Zr14Ti4Mn18Co21H160(O19F)4
_symmetry_space_group_name_H-M   'P 1'
_cell_length_a   10.28786218
_cell_length_b   11.87940000
_cell_length_c   13.28157297
_cell_angle_alpha   77.07903362
_cell_angle_beta   75.03678257
_cell_angle_gamma   73.22134512
_symmetry_Int_Tables_number   1
_chemical_formula_structural   Li23Zr14Ti4Mn18Co21H160(O19F)4
_chemical_formula_sum   'Li23 Zr14 Ti4 Mn18 Co21 H160 O76 F4'
_cell_volume   1481.76227367
_cell_formula_units_Z   1
loop_
 _symmetry_equiv_pos_site_id
 _symmetry_equiv_pos_as_xyz
  1  'x, y, z'
loop_
 _atom_type_symbol
 _atom_type_oxidation_number
  Li+  1.0
  Zr4+  4.0
  Ti4+  4.0
  Mn3+  3.0
  Co3+  3.0
  H+  1.0
  O2-  -2.0
  F-  -1.0
loop_
 _atom_site_type_symbol
 _atom_site_label
 _atom_site_symmetry_multiplicity
 _atom_site_fract_x
 _atom_site_fract_y
 _atom_site_fract_z
 _atom_site_occupancy
  Li+  Li0  1  0.80000000  0.20000000  0.90000000  1
  Li+  Li1  1  0.90000000  0.10000000  0.70000000  1
  Co3+  Co2  1  0.60000000  0.15000000  0.80000000  1
  Zr4+  Zr3  1  0.30000000  0.20000000  0.90000000  1
  Li+  Li4  1  0.70000000  0.05000000  0.60000000  1
  Zr4+  Zr5  1  0.40000000  0.10000000  0.70000000  1
  Li+  Li6  1  0.10000000  0.15000000  0.80000000  1
  Li+  Li7  1  0.50000000  0.00000000  0.50000000  1
  Mn3+  Mn8  1  0.20000000  0.05000000  0.60000000  1
  Li+  Li9  1  0.00000000  0.00000000  0.50000000  1
  Mn3+  Mn10  1  0.80000000  0.45000000  0.90000000  1
  Zr4+  Zr11  1  0.90000000  0.35000000  0.70000000  1
  Co3+  Co12  1  0.60000000  0.40000000  0.80000000  1
  Li+  Li13  1  0.30000000  0.45000000  0.90000000  1
  Mn3+  Mn14  1  0.70000000  0.30000000  0.60000000  1
  Mn3+  Mn15  1  0.40000000  0.35000000  0.70000000  1
  Co3+  Co16  1  0.10000000  0.40000000  0.80000000  1
  Mn3+  Mn17  1  0.80000000  0.20000000  0.40000000  1
  Li+  Li18  1  0.50000000  0.25000000  0.50000000  1
  Co3+  Co19  1  0.20000000  0.30000000  0.60000000  1
  Co3+  Co20  1  0.90000000  0.10000000  0.20000000  1
  Mn3+  Mn21  1  0.60000000  0.15000000  0.30000000  1
  Mn3+  Mn22  1  0.30000000  0.20000000  0.40000000  1
  Mn3+  Mn23  1  0.00000000  0.25000000  0.50000000  1
  Li+  Li24  1  0.70000000  0.05000000  0.10000000  1
  Mn3+  Mn25  1  0.40000000  0.10000000  0.20000000  1
  Li+  Li26  1  0.10000000  0.15000000  0.30000000  1
  Co3+  Co27  1  0.50000000  0.00000000  0.00000000  1
  Co3+  Co28  1  0.20000000  0.05000000  0.10000000  1
  Co3+  Co29  1  0.00000000  0.00000000  0.00000000  1
  Li+  Li30  1  0.80000000  0.70000000  0.90000000  1
  Li+  Li31  1  0.90000000  0.60000000  0.70000000  1
  Co3+  Co32  1  0.60000000  0.65000000  0.80000000  1
  Ti4+  Ti33  1  0.30000000  0.70000000  0.90000000  1
  Zr4+  Zr34  1  0.70000000  0.55000000  0.60000000  1
  Zr4+  Zr35  1  0.40000000  0.60000000  0.70000000  1
  Li+  Li36  1  0.10000000  0.65000000  0.80000000  1
  Co3+  Co37  1  0.80000000  0.45000000  0.40000000  1
  Li+  Li38  1  0.50000000  0.50000000  0.50000000  1
  Mn3+  Mn39  1  0.20000000  0.55000000  0.60000000  1
  Zr4+  Zr40  1  0.90000000  0.35000000  0.20000000  1
  Zr4+  Zr41  1  0.60000000  0.40000000  0.30000000  1
  Zr4+  Zr42  1  0.30000000  0.45000000  0.40000000  1
  Li+  Li43  1  0.00000000  0.50000000  0.50000000  1
  Zr4+  Zr44  1  0.70000000  0.30000000  0.10000000  1
  Co3+  Co45  1  0.40000000  0.35000000  0.20000000  1
  Li+  Li46  1  0.10000000  0.40000000  0.30000000  1
  Li+  Li47  1  0.50000000  0.25000000  0.00000000  1
  Li+  Li48  1  0.20000000  0.30000000  0.10000000  1
  Mn3+  Mn49  1  0.00000000  0.25000000  0.00000000  1
  Ti4+  Ti50  1  0.80000000  0.95000000  0.90000000  1
  Zr4+  Zr51  1  0.90000000  0.85000000  0.70000000  1
  Mn3+  Mn52  1  0.60000000  0.90000000  0.80000000  1
  Zr4+  Zr53  1  0.30000000  0.95000000  0.90000000  1
  Mn3+  Mn54  1  0.70000000  0.80000000  0.60000000  1
  Co3+  Co55  1  0.40000000  0.85000000  0.70000000  1
  Co3+  Co56  1  0.10000000  0.90000000  0.80000000  1
  Co3+  Co57  1  0.80000000  0.70000000  0.40000000  1
  Li+  Li58  1  0.50000000  0.75000000  0.50000000  1
  Mn3+  Mn59  1  0.20000000  0.80000000  0.60000000  1
  Mn3+  Mn60  1  0.90000000  0.60000000  0.20000000  1
  Mn3+  Mn61  1  0.60000000  0.65000000  0.30000000  1
  Co3+  Co62  1  0.30000000  0.70000000  0.40000000  1
  Co3+  Co63  1  0.00000000  0.75000000  0.50000000  1
  Li+  Li64  1  0.70000000  0.55000000  0.10000000  1
  Co3+  Co65  1  0.40000000  0.60000000  0.20000000  1
  Ti4+  Ti66  1  0.10000000  0.65000000  0.30000000  1
  Co3+  Co67  1  0.50000000  0.50000000  0.00000000  1
  Co3+  Co68  1  0.20000000  0.55000000  0.10000000  1
  Mn3+  Mn69  1  0.00000000  0.50000000  0.00000000  1
  Mn3+  Mn70  1  0.80000000  0.95000000  0.40000000  1
  Li+  Li71  1  0.90000000  0.85000000  0.20000000  1
  Li+  Li72  1  0.60000000  0.90000000  0.30000000  1
  Zr4+  Zr73  1  0.30000000  0.95000000  0.40000000  1
  Li+  Li74  1  0.70000000  0.80000000  0.10000000  1
  Co3+  Co75  1  0.40000000  0.85000000  0.20000000  1
  Zr4+  Zr76  1  0.10000000  0.90000000  0.30000000  1
  Zr4+  Zr77  1  0.50000000  0.75000000  0.00000000  1
  Ti4+  Ti78  1  0.20000000  0.80000000  0.10000000  1
  Co3+  Co79  1  0.00000000  0.75000000  1.00000000  1
  H+  H80  1  0.27500000  0.35000000  0.82500000  1
  H+  H81  1  0.37500000  0.25000000  0.62500000  1
  H+  H82  1  0.07500000  0.30000000  0.72500000  1
  H+  H83  1  0.77500000  0.35000000  0.82500000  1
  H+  H84  1  0.17500000  0.20000000  0.52500000  1
  H+  H85  1  0.87500000  0.25000000  0.62500000  1
  H+  H86  1  0.57500000  0.30000000  0.72500000  1
  H+  H87  1  0.97500000  0.15000000  0.42500000  1
  H+  H88  1  0.67500000  0.20000000  0.52500000  1
  H+  H89  1  0.47500000  0.15000000  0.42500000  1
  H+  H90  1  0.27500000  0.60000000  0.82500000  1
  H+  H91  1  0.37500000  0.50000000  0.62500000  1
  H+  H92  1  0.07500000  0.55000000  0.72500000  1
  H+  H93  1  0.77500000  0.60000000  0.82500000  1
  H+  H94  1  0.17500000  0.45000000  0.52500000  1
  H+  H95  1  0.87500000  0.50000000  0.62500000  1
  H+  H96  1  0.57500000  0.55000000  0.72500000  1
  H+  H97  1  0.27500000  0.35000000  0.32500000  1
  H+  H98  1  0.97500000  0.40000000  0.42500000  1
  H+  H99  1  0.67500000  0.45000000  0.52500000  1
  H+  H100  1  0.37500000  0.25000000  0.12500000  1
  H+  H101  1  0.07500000  0.30000000  0.22500000  1
  H+  H102  1  0.77500000  0.35000000  0.32500000  1
  H+  H103  1  0.47500000  0.40000000  0.42500000  1
  H+  H104  1  0.17500000  0.20000000  0.02500000  1
  H+  H105  1  0.87500000  0.25000000  0.12500000  1
  H+  H106  1  0.57500000  0.30000000  0.22500000  1
  H+  H107  1  0.97500000  0.15000000  0.92500000  1
  H+  H108  1  0.67500000  0.20000000  0.02500000  1
  H+  H109  1  0.47500000  0.15000000  0.92500000  1
  H+  H110  1  0.27500000  0.85000000  0.82500000  1
  H+  H111  1  0.37500000  0.75000000  0.62500000  1
  H+  H112  1  0.07500000  0.80000000  0.72500000  1
  H+  H113  1  0.77500000  0.85000000  0.82500000  1
  H+  H114  1  0.17500000  0.70000000  0.52500000  1
  H+  H115  1  0.87500000  0.75000000  0.62500000  1
  H+  H116  1  0.57500000  0.80000000  0.72500000  1
  H+  H117  1  0.27500000  0.60000000  0.32500000  1
  H+  H118  1  0.97500000  0.65000000  0.42500000  1
  H+  H119  1  0.67500000  0.70000000  0.52500000  1
  H+  H120  1  0.37500000  0.50000000  0.12500000  1
  H+  H121  1  0.07500000  0.55000000  0.22500000  1
  H+  H122  1  0.77500000  0.60000000  0.32500000  1
  H+  H123  1  0.47500000  0.65000000  0.42500000  1
  H+  H124  1  0.17500000  0.45000000  0.02500000  1
  H+  H125  1  0.87500000  0.50000000  0.12500000  1
  H+  H126  1  0.57500000  0.55000000  0.22500000  1
  H+  H127  1  0.97500000  0.40000000  0.92500000  1
  H+  H128  1  0.67500000  0.45000000  0.02500000  1
  H+  H129  1  0.47500000  0.40000000  0.92500000  1
  H+  H130  1  0.27500000  0.10000000  0.82500000  1
  H+  H131  1  0.37500000  0.00000000  0.62500000  1
  H+  H132  1  0.07500000  0.05000000  0.72500000  1
  H+  H133  1  0.77500000  0.10000000  0.82500000  1
  H+  H134  1  0.17500000  0.95000000  0.52500000  1
  H+  H135  1  0.87500000  0.00000000  0.62500000  1
  H+  H136  1  0.57500000  0.05000000  0.72500000  1
  H+  H137  1  0.27500000  0.85000000  0.32500000  1
  H+  H138  1  0.97500000  0.90000000  0.42500000  1
  H+  H139  1  0.67500000  0.95000000  0.52500000  1
  H+  H140  1  0.37500000  0.75000000  0.12500000  1
  H+  H141  1  0.07500000  0.80000000  0.22500000  1
  H+  H142  1  0.77500000  0.85000000  0.32500000  1
  H+  H143  1  0.47500000  0.90000000  0.42500000  1
  H+  H144  1  0.17500000  0.70000000  0.02500000  1
  H+  H145  1  0.87500000  0.75000000  0.12500000  1
  H+  H146  1  0.57500000  0.80000000  0.22500000  1
  H+  H147  1  0.97500000  0.65000000  0.92500000  1
  H+  H148  1  0.67500000  0.70000000  0.02500000  1
  H+  H149  1  0.47500000  0.65000000  0.92500000  1
  H+  H150  1  0.27500000  0.10000000  0.32500000  1
  H+  H151  1  0.37500000  0.00000000  0.12500000  1
  H+  H152  1  0.07500000  0.05000000  0.22500000  1
  H+  H153  1  0.77500000  0.10000000  0.32500000  1
  H+  H154  1  0.17500000  0.95000000  0.02500000  1
  H+  H155  1  0.87500000  0.00000000  0.12500000  1
  H+  H156  1  0.57500000  0.05000000  0.22500000  1
  H+  H157  1  0.97500000  0.90000000  0.92500000  1
  H+  H158  1  0.67500000  0.95000000  0.02500000  1
  H+  H159  1  0.47500000  0.90000000  0.92500000  1
  H+  H160  1  0.62500000  0.25000000  0.87500000  1
  H+  H161  1  0.72500000  0.15000000  0.67500000  1
  H+  H162  1  0.42500000  0.20000000  0.77500000  1
  H+  H163  1  0.12500000  0.25000000  0.87500000  1
  H+  H164  1  0.52500000  0.10000000  0.57500000  1
  H+  H165  1  0.22500000  0.15000000  0.67500000  1
  H+  H166  1  0.92500000  0.20000000  0.77500000  1
  H+  H167  1  0.32500000  0.05000000  0.47500000  1
  H+  H168  1  0.02500000  0.10000000  0.57500000  1
  H+  H169  1  0.82500000  0.05000000  0.47500000  1
  H+  H170  1  0.62500000  0.50000000  0.87500000  1
  H+  H171  1  0.72500000  0.40000000  0.67500000  1
  H+  H172  1  0.42500000  0.45000000  0.77500000  1
  H+  H173  1  0.12500000  0.50000000  0.87500000  1
  H+  H174  1  0.52500000  0.35000000  0.57500000  1
  H+  H175  1  0.22500000  0.40000000  0.67500000  1
  H+  H176  1  0.92500000  0.45000000  0.77500000  1
  H+  H177  1  0.62500000  0.25000000  0.37500000  1
  H+  H178  1  0.32500000  0.30000000  0.47500000  1
  H+  H179  1  0.02500000  0.35000000  0.57500000  1
  H+  H180  1  0.72500000  0.15000000  0.17500000  1
  H+  H181  1  0.42500000  0.20000000  0.27500000  1
  H+  H182  1  0.12500000  0.25000000  0.37500000  1
  H+  H183  1  0.82500000  0.30000000  0.47500000  1
  H+  H184  1  0.52500000  0.10000000  0.07500000  1
  H+  H185  1  0.22500000  0.15000000  0.17500000  1
  H+  H186  1  0.92500000  0.20000000  0.27500000  1
  H+  H187  1  0.32500000  0.05000000  0.97500000  1
  H+  H188  1  0.02500000  0.10000000  0.07500000  1
  H+  H189  1  0.82500000  0.05000000  0.97500000  1
  H+  H190  1  0.62500000  0.75000000  0.87500000  1
  H+  H191  1  0.72500000  0.65000000  0.67500000  1
  H+  H192  1  0.42500000  0.70000000  0.77500000  1
  H+  H193  1  0.12500000  0.75000000  0.87500000  1
  H+  H194  1  0.52500000  0.60000000  0.57500000  1
  H+  H195  1  0.22500000  0.65000000  0.67500000  1
  H+  H196  1  0.92500000  0.70000000  0.77500000  1
  H+  H197  1  0.62500000  0.50000000  0.37500000  1
  H+  H198  1  0.32500000  0.55000000  0.47500000  1
  H+  H199  1  0.02500000  0.60000000  0.57500000  1
  H+  H200  1  0.72500000  0.40000000  0.17500000  1
  H+  H201  1  0.42500000  0.45000000  0.27500000  1
  H+  H202  1  0.12500000  0.50000000  0.37500000  1
  H+  H203  1  0.82500000  0.55000000  0.47500000  1
  H+  H204  1  0.52500000  0.35000000  0.07500000  1
  H+  H205  1  0.22500000  0.40000000  0.17500000  1
  H+  H206  1  0.92500000  0.45000000  0.27500000  1
  H+  H207  1  0.32500000  0.30000000  0.97500000  1
  H+  H208  1  0.02500000  0.35000000  0.07500000  1
  H+  H209  1  0.82500000  0.30000000  0.97500000  1
  H+  H210  1  0.62500000  0.00000000  0.87500000  1
  H+  H211  1  0.72500000  0.90000000  0.67500000  1
  H+  H212  1  0.42500000  0.95000000  0.77500000  1
  H+  H213  1  0.12500000  0.00000000  0.87500000  1
  H+  H214  1  0.52500000  0.85000000  0.57500000  1
  H+  H215  1  0.22500000  0.90000000  0.67500000  1
  H+  H216  1  0.92500000  0.95000000  0.77500000  1
  H+  H217  1  0.62500000  0.75000000  0.37500000  1
  H+  H218  1  0.32500000  0.80000000  0.47500000  1
  H+  H219  1  0.02500000  0.85000000  0.57500000  1
  H+  H220  1  0.72500000  0.65000000  0.17500000  1
  H+  H221  1  0.42500000  0.70000000  0.27500000  1
  H+  H222  1  0.12500000  0.75000000  0.37500000  1
  H+  H223  1  0.82500000  0.80000000  0.47500000  1
  H+  H224  1  0.52500000  0.60000000  0.07500000  1
  H+  H225  1  0.22500000  0.65000000  0.17500000  1
  H+  H226  1  0.92500000  0.70000000  0.27500000  1
  H+  H227  1  0.32500000  0.55000000  0.97500000  1
  H+  H228  1  0.02500000  0.60000000  0.07500000  1
  H+  H229  1  0.82500000  0.55000000  0.97500000  1
  H+  H230  1  0.62500000  0.00000000  0.37500000  1
  H+  H231  1  0.72500000  0.90000000  0.17500000  1
  H+  H232  1  0.42500000  0.95000000  0.27500000  1
  H+  H233  1  0.12500000  0.00000000  0.37500000  1
  H+  H234  1  0.52500000  0.85000000  0.07500000  1
  H+  H235  1  0.22500000  0.90000000  0.17500000  1
  H+  H236  1  0.92500000  0.95000000  0.27500000  1
  H+  H237  1  0.32500000  0.80000000  0.97500000  1
  H+  H238  1  0.02500000  0.85000000  0.07500000  1
  H+  H239  1  0.82500000  0.80000000  0.97500000  1
  O2-  O240  1  0.45000000  0.30000000  0.85000000  1
  O2-  O241  1  0.55000000  0.20000000  0.65000000  1
  O2-  O242  1  0.25000000  0.25000000  0.75000000  1
  O2-  O243  1  0.95000000  0.30000000  0.85000000  1
  O2-  O244  1  0.35000000  0.15000000  0.55000000  1
  O2-  O245  1  0.05000000  0.20000000  0.65000000  1
  O2-  O246  1  0.75000000  0.25000000  0.75000000  1
  O2-  O247  1  0.15000000  0.10000000  0.45000000  1
  O2-  O248  1  0.85000000  0.15000000  0.55000000  1
  O2-  O249  1  0.65000000  0.10000000  0.45000000  1
  O2-  O250  1  0.45000000  0.55000000  0.85000000  1
  O2-  O251  1  0.55000000  0.45000000  0.65000000  1
  O2-  O252  1  0.25000000  0.50000000  0.75000000  1
  O2-  O253  1  0.95000000  0.55000000  0.85000000  1
  O2-  O254  1  0.35000000  0.40000000  0.55000000  1
  O2-  O255  1  0.05000000  0.45000000  0.65000000  1
  O2-  O256  1  0.75000000  0.50000000  0.75000000  1
  O2-  O257  1  0.45000000  0.30000000  0.35000000  1
  O2-  O258  1  0.15000000  0.35000000  0.45000000  1
  O2-  O259  1  0.85000000  0.40000000  0.55000000  1
  O2-  O260  1  0.55000000  0.20000000  0.15000000  1
  O2-  O261  1  0.25000000  0.25000000  0.25000000  1
  O2-  O262  1  0.95000000  0.30000000  0.35000000  1
  O2-  O263  1  0.65000000  0.35000000  0.45000000  1
  O2-  O264  1  0.35000000  0.15000000  0.05000000  1
  O2-  O265  1  0.05000000  0.20000000  0.15000000  1
  O2-  O266  1  0.75000000  0.25000000  0.25000000  1
  O2-  O267  1  0.15000000  0.10000000  0.95000000  1
  O2-  O268  1  0.85000000  0.15000000  0.05000000  1
  O2-  O269  1  0.65000000  0.10000000  0.95000000  1
  O2-  O270  1  0.45000000  0.80000000  0.85000000  1
  O2-  O271  1  0.55000000  0.70000000  0.65000000  1
  O2-  O272  1  0.25000000  0.75000000  0.75000000  1
  O2-  O273  1  0.95000000  0.80000000  0.85000000  1
  O2-  O274  1  0.35000000  0.65000000  0.55000000  1
  O2-  O275  1  0.05000000  0.70000000  0.65000000  1
  O2-  O276  1  0.75000000  0.75000000  0.75000000  1
  O2-  O277  1  0.45000000  0.55000000  0.35000000  1
  O2-  O278  1  0.15000000  0.60000000  0.45000000  1
  F-  F279  1  0.85000000  0.65000000  0.55000000  1
  O2-  O280  1  0.55000000  0.45000000  0.15000000  1
  O2-  O281  1  0.25000000  0.50000000  0.25000000  1
  O2-  O282  1  0.95000000  0.55000000  0.35000000  1
  O2-  O283  1  0.65000000  0.60000000  0.45000000  1
  F-  F284  1  0.35000000  0.40000000  0.05000000  1
  O2-  O285  1  0.05000000  0.45000000  0.15000000  1
  O2-  O286  1  0.75000000  0.50000000  0.25000000  1
  O2-  O287  1  0.15000000  0.35000000  0.95000000  1
  O2-  O288  1  0.85000000  0.40000000  0.05000000  1
  O2-  O289  1  0.65000000  0.35000000  0.95000000  1
  O2-  O290  1  0.45000000  0.05000000  0.85000000  1
  O2-  O291  1  0.55000000  0.95000000  0.65000000  1
  O2-  O292  1  0.25000000  0.00000000  0.75000000  1
  F-  F293  1  0.95000000  0.05000000  0.85000000  1
  O2-  O294  1  0.35000000  0.90000000  0.55000000  1
  O2-  O295  1  0.05000000  0.95000000  0.65000000  1
  O2-  O296  1  0.75000000  0.00000000  0.75000000  1
  O2-  O297  1  0.45000000  0.80000000  0.35000000  1
  O2-  O298  1  0.15000000  0.85000000  0.45000000  1
  O2-  O299  1  0.85000000  0.90000000  0.55000000  1
  O2-  O300  1  0.55000000  0.70000000  0.15000000  1
  O2-  O301  1  0.25000000  0.75000000  0.25000000  1
  O2-  O302  1  0.95000000  0.80000000  0.35000000  1
  O2-  O303  1  0.65000000  0.85000000  0.45000000  1
  O2-  O304  1  0.35000000  0.65000000  0.05000000  1
  O2-  O305  1  0.05000000  0.70000000  0.15000000  1
  O2-  O306  1  0.75000000  0.75000000  0.25000000  1
  O2-  O307  1  0.15000000  0.60000000  0.95000000  1
  O2-  O308  1  0.85000000  0.65000000  0.05000000  1
  O2-  O309  1  0.65000000  0.60000000  0.95000000  1
  O2-  O310  1  0.45000000  0.05000000  0.35000000  1
  F-  F311  1  0.55000000  0.95000000  0.15000000  1
  O2-  O312  1  0.25000000  0.00000000  0.25000000  1
  O2-  O313  1  0.95000000  0.05000000  0.35000000  1
  O2-  O314  1  0.35000000  0.90000000  0.05000000  1
  O2-  O315  1  0.05000000  0.95000000  0.15000000  1
  O2-  O316  1  0.75000000  0.00000000  0.25000000  1
  O2-  O317  1  0.15000000  0.85000000  0.95000000  1
  O2-  O318  1  0.85000000  0.90000000  0.05000000  1
  O2-  O319  1  0.65000000  0.85000000  0.95000000  1
