# generated using pymatgen
data_Li6TiMn8O19F
_symmetry_space_group_name_H-M   'P 1'
_cell_length_a   12.76277050
_cell_length_b   12.64247973
_cell_length_c   16.35742093
_cell_angle_alpha   90.17675833
_cell_angle_beta   90.19375835
_cell_angle_gamma   89.29069141
_symmetry_Int_Tables_number   1
_chemical_formula_structural   Li6TiMn8O19F
_chemical_formula_sum   'Li48 Ti8 Mn64 O152 F8'
_cell_volume   2639.09048179
_cell_formula_units_Z   8
loop_
 _symmetry_equiv_pos_site_id
 _symmetry_equiv_pos_as_xyz
  1  'x, y, z'
loop_
 _atom_type_symbol
 _atom_type_oxidation_number
  Li+  1.0
  Ti4+  4.0
  Mn3+  3.0
  O2-  -2.0
  F-  -1.0
loop_
 _atom_site_type_symbol
 _atom_site_label
 _atom_site_symmetry_multiplicity
 _atom_site_fract_x
 _atom_site_fract_y
 _atom_site_fract_z
 _atom_site_occupancy
  Li+  Li0  1  0.90438110  0.80390018  0.74682699  1
  Li+  Li1  1  0.95059973  0.64975871  0.62372836  1
  Li+  Li2  1  0.90855615  0.81552249  0.50708099  1
  Li+  Li3  1  0.79446893  0.60282495  0.74879835  1
  Li+  Li4  1  0.70136350  0.89656568  0.49507891  1
  Li+  Li5  1  0.64874661  0.56470499  0.87396102  1
  Li+  Li6  1  0.44330441  0.66117831  0.86992894  1
  Li+  Li7  1  0.26617625  0.74169962  0.88257543  1
  Li+  Li8  1  0.05136431  0.85274138  0.87269261  1
  Li+  Li9  1  0.94791934  0.65133498  0.37460988  1
  Li+  Li10  1  0.84644771  0.45525963  0.63068618  1
  Li+  Li11  1  0.75373359  0.74493382  0.36849634  1
  Li+  Li12  1  0.50113343  0.50173403  0.74287910  1
  Li+  Li13  1  0.45498870  0.66466158  0.62694194  1
  Li+  Li14  1  0.40020752  0.80540310  0.51271923  1
  Li+  Li15  1  0.34063977  0.95199648  0.37540894  1
  Li+  Li16  1  0.25843963  0.75644680  0.62636593  1
  Li+  Li17  1  0.14978301  0.54748896  0.87735193  1
  Li+  Li18  1  0.03647254  0.85239379  0.61808016  1
  Li+  Li19  1  0.84096227  0.44808154  0.37513470  1
  Li+  Li20  1  0.74904612  0.75523519  0.12880252  1
  Li+  Li21  1  0.71117452  0.88834324  -0.00453213  1
  Li+  Li22  1  0.68857999  0.41021184  0.50344631  1
  Li+  Li23  1  0.61658549  0.70496644  0.24904290  1
  Li+  Li24  1  0.55615193  0.84425114  0.12401761  1
  Li+  Li25  1  0.65417329  0.07244244  0.88016485  1
  Li+  Li26  1  0.35959162  0.95663947  0.12192521  1
  Li+  Li27  1  0.40486258  0.29253469  0.75202795  1
  Li+  Li28  1  0.35057518  0.45006530  0.61290818  1
  Li+  Li29  1  0.24604297  0.75044779  0.37853055  1
  Li+  Li30  1  0.18192536  0.89834447  0.24826966  1
  Li+  Li31  1  0.24550412  0.23845706  0.87683422  1
  Li+  Li32  1  0.09866813  0.70176413  0.50233529  1
  Li+  Li33  1  -0.00369758  0.48916780  0.74487462  1
  Li+  Li34  1  0.94968947  0.13802716  0.37628065  1
  Li+  Li35  1  0.69824151  0.40628219  0.25485292  1
  Li+  Li36  1  0.60155542  0.70686418  0.00004924  1
  Li+  Li37  1  0.50044845  0.50018736  0.24933136  1
  Li+  Li38  1  0.03839820  0.34535839  0.62960936  1
  Li+  Li39  1  0.54599856  0.34739107  0.13223728  1
  Li+  Li40  1  0.45241731  0.14423155  0.37273426  1
  Li+  Li41  1  0.39505206  0.31263919  0.24049095  1
  Li+  Li42  1  0.15868883  0.54056060  0.12179624  1
  Li+  Li43  1  -0.00440318  -0.00844839  0.74491787  1
  Li+  Li44  1  0.62424997  0.20978615  -0.00342073  1
  Li+  Li45  1  0.51081660  0.00150565  0.25885211  1
  Li+  Li46  1  0.04134444  0.35891940  0.12133763  1
  Li+  Li47  1  0.28617357  0.10252036  -0.00954988  1
  Ti4+  Ti48  1  0.84603364  0.43902572  0.87175132  1
  Ti4+  Ti49  1  0.76161070  0.75183839  0.62347889  1
  Ti4+  Ti50  1  0.40104825  0.81249777  0.25881966  1
  Ti4+  Ti51  1  0.05139079  0.86258919  0.37648446  1
  Ti4+  Ti52  1  0.35666923  0.45435357  0.38566035  1
  Ti4+  Ti53  1  0.64985113  0.04430023  0.11864563  1
  Ti4+  Ti54  1  0.40509046  0.27874384  0.00545424  1
  Ti4+  Ti55  1  0.08964730  0.19957665  0.25636808  1
  Mn3+  Mn56  1  0.84892025  0.94086582  0.87878685  1
  Mn3+  Mn57  1  0.94364772  0.66006397  0.87706855  1
  Mn3+  Mn58  1  0.70122526  0.90057378  0.75064609  1
  Mn3+  Mn59  1  0.54861200  0.84713074  0.87724328  1
  Mn3+  Mn60  1  0.34946647  0.95122414  0.87810056  1
  Mn3+  Mn61  1  0.83941746  0.94419869  0.37330603  1
  Mn3+  Mn62  1  0.58971430  0.69275731  0.74284742  1
  Mn3+  Mn63  1  0.20374842  0.89105541  0.74937120  1
  Mn3+  Mn64  1  0.90901608  0.79695883  0.25131043  1
  Mn3+  Mn65  1  0.85993137  0.94758243  0.12200260  1
  Mn3+  Mn66  1  0.94890326  0.14934249  0.87671704  1
  Mn3+  Mn67  1  0.79903888  0.59935551  0.49947580  1
  Mn3+  Mn68  1  0.69593770  0.40678554  0.74724481  1
  Mn3+  Mn69  1  0.58980493  0.69603267  0.50517495  1
  Mn3+  Mn70  1  0.56074867  0.85099330  0.37238669  1
  Mn3+  Mn71  1  0.55408179  0.34967990  0.87179470  1
  Mn3+  Mn72  1  0.34424281  0.45042601  0.87145308  1
  Mn3+  Mn73  1  0.30916380  0.59901352  0.74803189  1
  Mn3+  Mn74  1  0.19911532  0.89507295  0.50072558  1
  Mn3+  Mn75  1  0.09690759  0.69583559  0.74790782  1
  Mn3+  Mn76  1  0.95205691  0.64969174  0.12749363  1
  Mn3+  Mn77  1  0.89333016  0.30158309  0.49072129  1
  Mn3+  Mn78  1  0.80570359  0.11096590  0.74900394  1
  Mn3+  Mn79  1  0.75645562  0.25412440  0.62493067  1
  Mn3+  Mn80  1  0.64701400  0.55477859  0.37014948  1
  Mn3+  Mn81  1  0.53481589  0.34100124  0.62202325  1
  Mn3+  Mn82  1  0.31539406  0.61612717  0.50384935  1
  Mn3+  Mn83  1  0.15134971  0.53938963  0.62506503  1
  Mn3+  Mn84  1  0.05427621  0.35203955  0.87353509  1
  Mn3+  Mn85  1  0.89651570  0.29821509  0.26032631  1
  Mn3+  Mn86  1  0.80007361  0.58942152  0.00205702  1
  Mn3+  Mn87  1  0.81076970  0.09187544  0.49834367  1
  Mn3+  Mn88  1  0.66089945  0.54511223  0.13186603  1
  Mn3+  Mn89  1  0.65061371  0.04775247  0.62496789  1
  Mn3+  Mn90  1  0.59755474  0.19481611  0.49122611  1
  Mn3+  Mn91  1  0.55261121  0.35139394  0.37595720  1
  Mn3+  Mn92  1  0.45044311  0.65162079  0.12858554  1
  Mn3+  Mn93  1  0.49163985  -0.00192704  0.73785321  1
  Mn3+  Mn94  1  0.29761333  0.59669001  0.25170730  1
  Mn3+  Mn95  1  0.24487683  0.75134831  0.12523012  1
  Mn3+  Mn96  1  0.20207630  0.89972507  -0.00104184  1
  Mn3+  Mn97  1  0.30105517  0.10145511  0.75316249  1
  Mn3+  Mn98  1  0.25556796  0.26509505  0.62549206  1
  Mn3+  Mn99  1  0.14676225  0.55601153  0.37724785  1
  Mn3+  Mn100  1  0.09233293  0.20241606  0.74997524  1
  Mn3+  Mn101  1  0.00079330  0.49661414  0.49924188  1
  Mn3+  Mn102  1  0.90343959  0.29913960  0.00984036  1
  Mn3+  Mn103  1  0.79940062  0.09301597  0.25411187  1
  Mn3+  Mn104  1  0.75354178  0.26649665  0.12421652  1
  Mn3+  Mn105  1  0.59174355  0.19921371  0.25173113  1
  Mn3+  Mn106  1  0.50417666  0.49423018  0.00303930  1
  Mn3+  Mn107  1  0.49898974  -0.01301240  0.50141587  1
  Mn3+  Mn108  1  0.30816296  0.09981398  0.50003292  1
  Mn3+  Mn109  1  0.25364730  0.26252287  0.37603628  1
  Mn3+  Mn110  1  0.10029819  0.68973310  -0.00103038  1
  Mn3+  Mn111  1  0.15054785  0.05015631  0.62456660  1
  Mn3+  Mn112  1  0.09220085  0.20235084  0.49438954  1
  Mn3+  Mn113  1  0.00808948  0.50424022  0.25201094  1
  Mn3+  Mn114  1  0.30965090  0.09931364  0.25080175  1
  Mn3+  Mn115  1  0.24855476  0.25338486  0.12329788  1
  Mn3+  Mn116  1  0.19440330  0.40657751  0.00157619  1
  Mn3+  Mn117  1  0.49992937  0.00322497  -0.00041980  1
  Mn3+  Mn118  1  0.14365271  0.04929281  0.12670855  1
  Mn3+  Mn119  1  0.00066043  0.00185143  -0.00175706  1
  O2-  O120  1  0.64752402  0.04369107  0.74226149  1
  O2-  O121  1  0.73731433  0.75638716  0.74181147  1
  O2-  O122  1  0.70318442  0.90676341  0.63549342  1
  O2-  O123  1  0.65764163  0.05242117  0.50936201  1
  O2-  O124  1  0.55824175  0.86030354  0.75850415  1
  O2-  O125  1  0.51727891  0.00073090  0.61793542  1
  O2-  O126  1  0.34350745  0.95357179  0.75976063  1
  O2-  O127  1  0.15360137  0.04902841  0.74050687  1
  O2-  O128  1  0.74595934  0.74008341  0.50450723  1
  O2-  O129  1  0.69997944  0.88572171  0.37781195  1
  O2-  O130  1  0.65277143  0.06305890  0.24228631  1
  O2-  O131  1  0.64794068  0.55108730  0.75364957  1
  O2-  O132  1  0.60457269  0.70399265  0.62258119  1
  O2-  O133  1  0.55456829  0.84540448  0.48975961  1
  O2-  O134  1  0.50487550  -0.01570183  0.38467221  1
  O2-  O135  1  0.44741096  0.64493256  0.74634933  1
  O2-  O136  1  0.34033794  0.95450691  0.49524258  1
  O2-  O137  1  0.23856061  0.74035777  0.75256286  1
  O2-  O138  1  0.19261381  0.90945065  0.61965015  1
  O2-  O139  1  0.15984607  0.05133253  0.51053426  1
  O2-  O140  1  0.06410989  0.84272926  0.75009712  1
  O2-  O141  1  0.83891972  0.95476847  0.75934660  1
  O2-  O142  1  0.71418938  0.90992693  0.11533325  1
  O2-  O143  1  0.63475763  0.05405792  0.00210450  1
  O2-  O144  1  0.75448768  0.25136904  0.73625529  1
  O2-  O145  1  0.69105364  0.38746686  0.62976359  1
  O2-  O146  1  0.65446067  0.56005284  0.49071538  1
  O2-  O147  1  0.60208695  0.69909773  0.38440242  1
  O2-  O148  1  0.54485230  0.84610251  0.25667592  1
  O2-  O149  1  0.51019109  -0.00721756  0.11370028  1
  O2-  O150  1  0.55544235  0.35496272  0.75693002  1
  O2-  O151  1  0.45591901  0.65994761  0.50741148  1
  O2-  O152  1  0.40860877  0.80510074  0.36796376  1
  O2-  O153  1  0.34938228  0.95381759  0.24974013  1
  O2-  O154  1  0.35252556  0.45936010  0.75867084  1
  O2-  O155  1  0.28950829  0.59378774  0.62703543  1
  O2-  O156  1  0.25100228  0.75407585  0.50294755  1
  O2-  O157  1  0.19394635  0.89629157  0.38391682  1
  O2-  O158  1  0.15321852  0.05540253  0.23991900  1
  O2-  O159  1  0.15317401  0.55656098  0.74120123  1
  O2-  O160  1  0.09996368  0.68659684  0.63568345  1
  O2-  O161  1  0.06009164  0.84696642  0.49709220  1
  O2-  O162  1  -0.01989737  -0.01235173  0.37706130  1
  O2-  O163  1  0.95756832  0.65258452  0.75933769  1
  O2-  O164  1  0.89435307  0.79532891  0.62499640  1
  O2-  O165  1  0.83998384  0.95123017  0.48653844  1
  O2-  O166  1  0.69923259  0.90965619  0.86742397  1
  O2-  O167  1  0.75585705  0.23999781  0.50554407  1
  O2-  O168  1  0.68472508  0.41153479  0.37628349  1
  O2-  O169  1  0.64522202  0.55325170  0.25263034  1
  O2-  O170  1  0.58999383  0.69099369  0.12741129  1
  O2-  O171  1  0.55526577  0.86158344  -0.01085434  1
  O2-  O172  1  0.49510215  -0.00734721  0.87929306  1
  O2-  O173  1  0.61034092  0.19816184  0.61216422  1
  O2-  O174  1  0.55682886  0.33453710  0.49316894  1
  O2-  O175  1  0.50862037  0.49299863  0.37236074  1
  O2-  O176  1  0.44071829  0.65271883  0.23961792  1
  O2-  O177  1  0.39731872  0.78968778  0.12910972  1
  O2-  O178  1  0.34849151  0.95894879  -0.00810535  1
  O2-  O179  1  0.43615818  0.13263521  0.74554210  1
  O2-  O180  1  0.39184735  0.30343959  0.63223309  1
  O2-  O181  1  0.35316517  0.47843280  0.49636901  1
  O2-  O182  1  0.29092082  0.60193115  0.37398631  1
  O2-  O183  1  0.25622059  0.75045074  0.24169002  1
  O2-  O184  1  0.20861897  0.90242481  0.11648197  1
  O2-  O185  1  0.14670273  0.03944784  0.00924497  1
  O2-  O186  1  0.24531492  0.23773940  0.74770975  1
  O2-  O187  1  0.19590860  0.39875557  0.62434087  1
  O2-  O188  1  0.13966864  0.55021792  0.50284629  1
  O2-  O189  1  0.10114590  0.69033983  0.38301666  1
  O2-  O190  1  0.04133346  0.84082942  0.26204070  1
  O2-  O191  1  0.00146190  0.00214459  0.11069517  1
  O2-  O192  1  0.05158642  0.33893513  0.75732252  1
  O2-  O193  1  0.00894880  0.49912693  0.61529426  1
  O2-  O194  1  0.94102217  0.63536137  0.49720435  1
  O2-  O195  1  0.89958826  0.80190167  0.36938628  1
  O2-  O196  1  0.84707628  0.94775499  0.25433020  1
  O2-  O197  1  0.83427780  0.45303959  0.75396339  1
  O2-  O198  1  0.80256840  0.60641272  0.61601922  1
  O2-  O199  1  0.75878496  0.24538219  0.24440684  1
  O2-  O200  1  0.69065809  0.39973987  0.13737328  1
  O2-  O201  1  0.65375079  0.55159275  0.01029702  1
  O2-  O202  1  0.58708235  0.70851277  0.86437770  1
  O2-  O203  1  0.59242705  0.20799271  0.37368783  1
  O2-  O204  1  0.54913123  0.34082928  0.25944777  1
  O2-  O205  1  0.50685626  0.50873743  0.11914249  1
  O2-  O206  1  0.40909938  0.81507313  0.87550123  1
  O2-  O207  1  0.45347745  0.12940982  0.49413596  1
  O2-  O208  1  0.39966090  0.31145633  0.37354251  1
  O2-  O209  1  0.35418603  0.46878288  0.26158484  1
  O2-  O210  1  0.30256254  0.61083082  0.13452701  1
  O2-  O211  1  0.23880299  0.75524863  0.00723747  1
  O2-  O212  1  0.21563868  0.89446452  0.88221492  1
  O2-  O213  1  0.28528560  0.10687929  0.63105477  1
  O2-  O214  1  0.24495645  0.23903001  0.50698470  1
  O2-  O215  1  0.21624337  0.40679525  0.38088086  1
  O2-  O216  1  0.15714458  0.55196212  0.26406077  1
  O2-  O217  1  0.10749883  0.69724739  0.11222746  1
  O2-  O218  1  0.06590547  0.86039875  -0.00879227  1
  O2-  O219  1  -0.01235339  0.00359346  0.87951411  1
  O2-  O220  1  0.10685237  0.19734107  0.63053488  1
  O2-  O221  1  0.03106197  0.34881196  0.50176425  1
  O2-  O222  1  0.01103287  0.50529194  0.37609255  1
  O2-  O223  1  0.94750291  0.64971781  0.24393708  1
  O2-  O224  1  0.90013911  0.79720581  0.13839827  1
  O2-  O225  1  0.86313978  0.95025652  -0.00591915  1
  O2-  O226  1  0.95727716  0.14441987  0.75982688  1
  O2-  O227  1  0.88517724  0.30553511  0.60921247  1
  O2-  O228  1  0.85459850  0.45502510  0.49788503  1
  O2-  O229  1  0.78828840  0.59476529  0.38483540  1
  O2-  O230  1  0.76535686  0.25621271  0.01587219  1
  O2-  O231  1  0.69536825  0.40113585  0.86284052  1
  O2-  O232  1  0.61749998  0.20324487  0.13060830  1
  O2-  O233  1  0.54186835  0.34984788  -0.00382146  1
  O2-  O234  1  0.50353607  0.49079490  0.88698564  1
  O2-  O235  1  0.44687689  0.14446591  0.25234577  1
  O2-  O236  1  0.38958166  0.29529561  0.11790466  1
  O2-  O237  1  0.34568894  0.43835483  -0.01104478  1
  O2-  O238  1  0.30316318  0.59428157  0.86212654  1
  O2-  O239  1  0.30329787  0.11682810  0.36782689  1
  O2-  O240  1  0.25042568  0.24178674  0.24253468  1
  O2-  O241  1  0.19340650  0.38775674  0.11354462  1
  O2-  O242  1  0.15485717  0.54540526  -0.00056338  1
  O2-  O243  1  0.08892634  0.69307760  0.87715711  1
  O2-  O244  1  0.11411598  0.20793934  0.36836615  1
  O2-  O245  1  0.03473487  0.34374164  0.24529608  1
  O2-  O246  1  0.00687820  0.51330024  0.14158029  1
  O2-  O247  1  0.95056937  0.65129802  0.00187958  1
  O2-  O248  1  0.90259114  0.80935598  0.86795136  1
  O2-  O249  1  0.94536458  0.16241605  0.49209948  1
  O2-  O250  1  0.89091764  0.30249939  0.37832487  1
  O2-  O251  1  0.79676687  0.59861926  0.11536203  1
  O2-  O252  1  0.79147652  0.10571409  0.63055729  1
  O2-  O253  1  0.44749168  0.14290781  -0.00196354  1
  O2-  O254  1  0.41014315  0.31079895  0.87524422  1
  O2-  O255  1  0.28487524  0.10107530  0.12936341  1
  O2-  O256  1  0.25504926  0.25324527  0.00489616  1
  O2-  O257  1  0.19746181  0.39674749  0.88358677  1
  O2-  O258  1  0.11073654  0.19491349  0.13286959  1
  O2-  O259  1  0.05208487  0.35110423  -0.00984686  1
  O2-  O260  1  -0.00856584  0.48551286  0.86387055  1
  O2-  O261  1  0.94614704  0.15813151  0.25823420  1
  O2-  O262  1  0.89417163  0.30268908  0.12537926  1
  O2-  O263  1  0.84646706  0.44982256  -0.01146392  1
  O2-  O264  1  0.80945575  0.59262922  0.88404680  1
  O2-  O265  1  0.80059152  0.08532664  0.36845069  1
  O2-  O266  1  0.29808002  0.09106548  0.86540932  1
  O2-  O267  1  0.09027791  0.20260799  0.86509397  1
  O2-  O268  1  0.95515637  0.14649336  -0.01207832  1
  O2-  O269  1  0.90740973  0.29657499  0.88614405  1
  O2-  O270  1  0.79908633  0.09211209  0.13694484  1
  O2-  O271  1  0.81097298  0.10173345  0.86460698  1
  F-  F272  1  0.39137360  0.79482473  0.62344796  1
  F-  F273  1  0.01254248  0.00247766  0.63016442  1
  F-  F274  1  0.76105895  0.75159329  0.24935380  1
  F-  F275  1  0.49239711  0.48835075  0.62951275  1
  F-  F276  1  0.74456682  0.73846236  0.00536599  1
  F-  F277  1  0.45584211  0.64238301  0.00542166  1
  F-  F278  1  0.85048781  0.44233887  0.25980650  1
  F-  F279  1  0.60240221  0.21110519  0.88127220  1
