# generated using pymatgen
data_Li11TiMn8O19F
_symmetry_space_group_name_H-M   'P 1'
_cell_length_a   13.28156617
_cell_length_b   13.28156617
_cell_length_c   16.79999999
_cell_angle_alpha   90.00000000
_cell_angle_beta   90.00000000
_cell_angle_gamma   90.00000000
_symmetry_Int_Tables_number   1
_chemical_formula_structural   Li11TiMn8O19F
_chemical_formula_sum   'Li88 Ti8 Mn64 O152 F8'
_cell_volume   2963.51999706
_cell_formula_units_Z   8
loop_
 _symmetry_equiv_pos_site_id
 _symmetry_equiv_pos_as_xyz
  1  'x, y, z'
loop_
 _atom_type_symbol
 _atom_type_oxidation_number
  Li+  1.0
  Ti4+  4.0
  Mn3+  3.0
  O2-  -2.0
  F-  -1.0
loop_
 _atom_site_type_symbol
 _atom_site_label
 _atom_site_symmetry_multiplicity
 _atom_site_fract_x
 _atom_site_fract_y
 _atom_site_fract_z
 _atom_site_occupancy
  Mn3+  Mn0  1  0.85000000  0.95000000  0.87500000  1
  Mn3+  Mn1  1  0.95000000  0.65000000  0.87500000  1
  Li+  Li2  1  0.90000000  0.80000000  0.75000000  1
  Li+  Li3  1  0.85000000  0.95000000  0.62500000  1
  Li+  Li4  1  0.75000000  0.75000000  0.87500000  1
  Mn3+  Mn5  1  0.70000000  0.90000000  0.75000000  1
  Mn3+  Mn6  1  0.55000000  0.85000000  0.87500000  1
  Mn3+  Mn7  1  0.35000000  0.95000000  0.87500000  1
  Li+  Li8  1  0.95000000  0.65000000  0.62500000  1
  Li+  Li9  1  0.90000000  0.80000000  0.50000000  1
  Mn3+  Mn10  1  0.85000000  0.95000000  0.37500000  1
  Ti4+  Ti11  1  0.85000000  0.45000000  0.87500000  1
  Li+  Li12  1  0.80000000  0.60000000  0.75000000  1
  Ti4+  Ti13  1  0.75000000  0.75000000  0.62500000  1
  Li+  Li14  1  0.70000000  0.90000000  0.50000000  1
  Li+  Li15  1  0.65000000  0.55000000  0.87500000  1
  Mn3+  Mn16  1  0.60000000  0.70000000  0.75000000  1
  Li+  Li17  1  0.55000000  0.85000000  0.62500000  1
  Li+  Li18  1  0.45000000  0.65000000  0.87500000  1
  Li+  Li19  1  0.40000000  0.80000000  0.75000000  1
  Li+  Li20  1  0.35000000  0.95000000  0.62500000  1
  Li+  Li21  1  0.25000000  0.75000000  0.87500000  1
  Mn3+  Mn22  1  0.20000000  0.90000000  0.75000000  1
  Li+  Li23  1  0.05000000  0.85000000  0.87500000  1
  Li+  Li24  1  0.95000000  0.65000000  0.37500000  1
  Mn3+  Mn25  1  0.90000000  0.80000000  0.25000000  1
  Mn3+  Mn26  1  0.85000000  0.95000000  0.12500000  1
  Mn3+  Mn27  1  0.95000000  0.15000000  0.87500000  1
  Li+  Li28  1  0.90000000  0.30000000  0.75000000  1
  Li+  Li29  1  0.85000000  0.45000000  0.62500000  1
  Mn3+  Mn30  1  0.80000000  0.60000000  0.50000000  1
  Li+  Li31  1  0.75000000  0.75000000  0.37500000  1
  Li+  Li32  1  0.70000000  0.90000000  0.25000000  1
  Li+  Li33  1  0.75000000  0.25000000  0.87500000  1
  Mn3+  Mn34  1  0.70000000  0.40000000  0.75000000  1
  Li+  Li35  1  0.65000000  0.55000000  0.62500000  1
  Mn3+  Mn36  1  0.60000000  0.70000000  0.50000000  1
  Mn3+  Mn37  1  0.55000000  0.85000000  0.37500000  1
  Mn3+  Mn38  1  0.55000000  0.35000000  0.87500000  1
  Li+  Li39  1  0.50000000  0.50000000  0.75000000  1
  Li+  Li40  1  0.45000000  0.65000000  0.62500000  1
  Li+  Li41  1  0.40000000  0.80000000  0.50000000  1
  Li+  Li42  1  0.35000000  0.95000000  0.37500000  1
  Mn3+  Mn43  1  0.35000000  0.45000000  0.87500000  1
  Mn3+  Mn44  1  0.30000000  0.60000000  0.75000000  1
  Li+  Li45  1  0.25000000  0.75000000  0.62500000  1
  Mn3+  Mn46  1  0.20000000  0.90000000  0.50000000  1
  Li+  Li47  1  0.15000000  0.55000000  0.87500000  1
  Mn3+  Mn48  1  0.10000000  0.70000000  0.75000000  1
  Li+  Li49  1  0.05000000  0.85000000  0.62500000  1
  Mn3+  Mn50  1  0.95000000  0.65000000  0.12500000  1
  Li+  Li51  1  0.90000000  0.80000000  0.00000000  1
  Li+  Li52  1  0.95000000  0.15000000  0.62500000  1
  Mn3+  Mn53  1  0.90000000  0.30000000  0.50000000  1
  Li+  Li54  1  0.85000000  0.45000000  0.37500000  1
  Li+  Li55  1  0.80000000  0.60000000  0.25000000  1
  Li+  Li56  1  0.75000000  0.75000000  0.12500000  1
  Li+  Li57  1  0.70000000  0.90000000  1.00000000  1
  Mn3+  Mn58  1  0.80000000  0.10000000  0.75000000  1
  Mn3+  Mn59  1  0.75000000  0.25000000  0.62500000  1
  Li+  Li60  1  0.70000000  0.40000000  0.50000000  1
  Mn3+  Mn61  1  0.65000000  0.55000000  0.37500000  1
  Li+  Li62  1  0.60000000  0.70000000  0.25000000  1
  Li+  Li63  1  0.55000000  0.85000000  0.12500000  1
  Li+  Li64  1  0.65000000  0.05000000  0.87500000  1
  Li+  Li65  1  0.60000000  0.20000000  0.75000000  1
  Mn3+  Mn66  1  0.55000000  0.35000000  0.62500000  1
  Li+  Li67  1  0.50000000  0.50000000  0.50000000  1
  Li+  Li68  1  0.45000000  0.65000000  0.37500000  1
  Ti4+  Ti69  1  0.40000000  0.80000000  0.25000000  1
  Li+  Li70  1  0.35000000  0.95000000  0.12500000  1
  Li+  Li71  1  0.45000000  0.15000000  0.87500000  1
  Li+  Li72  1  0.40000000  0.30000000  0.75000000  1
  Li+  Li73  1  0.35000000  0.45000000  0.62500000  1
  Mn3+  Mn74  1  0.30000000  0.60000000  0.50000000  1
  Li+  Li75  1  0.25000000  0.75000000  0.37500000  1
  Li+  Li76  1  0.20000000  0.90000000  0.25000000  1
  Li+  Li77  1  0.25000000  0.25000000  0.87500000  1
  Li+  Li78  1  0.20000000  0.40000000  0.75000000  1
  Mn3+  Mn79  1  0.15000000  0.55000000  0.62500000  1
  Li+  Li80  1  0.10000000  0.70000000  0.50000000  1
  Ti4+  Ti81  1  0.05000000  0.85000000  0.37500000  1
  Mn3+  Mn82  1  0.05000000  0.35000000  0.87500000  1
  Li+  Li83  1  0.00000000  0.50000000  0.75000000  1
  Li+  Li84  1  0.95000000  0.15000000  0.37500000  1
  Mn3+  Mn85  1  0.90000000  0.30000000  0.25000000  1
  Li+  Li86  1  0.85000000  0.45000000  0.12500000  1
  Mn3+  Mn87  1  0.80000000  0.60000000  0.00000000  1
  Mn3+  Mn88  1  0.80000000  0.10000000  0.50000000  1
  Li+  Li89  1  0.75000000  0.25000000  0.37500000  1
  Li+  Li90  1  0.70000000  0.40000000  0.25000000  1
  Mn3+  Mn91  1  0.65000000  0.55000000  0.12500000  1
  Li+  Li92  1  0.60000000  0.70000000  0.00000000  1
  Mn3+  Mn93  1  0.65000000  0.05000000  0.62500000  1
  Mn3+  Mn94  1  0.60000000  0.20000000  0.50000000  1
  Mn3+  Mn95  1  0.55000000  0.35000000  0.37500000  1
  Li+  Li96  1  0.50000000  0.50000000  0.25000000  1
  Mn3+  Mn97  1  0.45000000  0.65000000  0.12500000  1
  Li+  Li98  1  0.40000000  0.80000000  0.00000000  1
  Mn3+  Mn99  1  0.50000000  0.00000000  0.75000000  1
  Li+  Li100  1  0.45000000  0.15000000  0.62500000  1
  Li+  Li101  1  0.40000000  0.30000000  0.50000000  1
  Ti4+  Ti102  1  0.35000000  0.45000000  0.37500000  1
  Mn3+  Mn103  1  0.30000000  0.60000000  0.25000000  1
  Mn3+  Mn104  1  0.25000000  0.75000000  0.12500000  1
  Mn3+  Mn105  1  0.20000000  0.90000000  0.00000000  1
  Mn3+  Mn106  1  0.30000000  0.10000000  0.75000000  1
  Mn3+  Mn107  1  0.25000000  0.25000000  0.62500000  1
  Li+  Li108  1  0.20000000  0.40000000  0.50000000  1
  Mn3+  Mn109  1  0.15000000  0.55000000  0.37500000  1
  Li+  Li110  1  0.10000000  0.70000000  0.25000000  1
  Li+  Li111  1  0.05000000  0.85000000  0.12500000  1
  Li+  Li112  1  0.15000000  0.05000000  0.87500000  1
  Mn3+  Mn113  1  0.10000000  0.20000000  0.75000000  1
  Li+  Li114  1  0.05000000  0.35000000  0.62500000  1
  Mn3+  Mn115  1  0.00000000  0.50000000  0.50000000  1
  Li+  Li116  1  0.95000000  0.15000000  0.12500000  1
  Mn3+  Mn117  1  0.90000000  0.30000000  0.00000000  1
  Mn3+  Mn118  1  0.80000000  0.10000000  0.25000000  1
  Mn3+  Mn119  1  0.75000000  0.25000000  0.12500000  1
  Li+  Li120  1  0.70000000  0.40000000  0.00000000  1
  Li+  Li121  1  0.65000000  0.05000000  0.37500000  1
  Mn3+  Mn122  1  0.60000000  0.20000000  0.25000000  1
  Li+  Li123  1  0.55000000  0.35000000  0.12500000  1
  Mn3+  Mn124  1  0.50000000  0.50000000  0.00000000  1
  Mn3+  Mn125  1  0.50000000  0.00000000  0.50000000  1
  Li+  Li126  1  0.45000000  0.15000000  0.37500000  1
  Li+  Li127  1  0.40000000  0.30000000  0.25000000  1
  Li+  Li128  1  0.35000000  0.45000000  0.12500000  1
  Li+  Li129  1  0.30000000  0.60000000  0.00000000  1
  Mn3+  Mn130  1  0.30000000  0.10000000  0.50000000  1
  Mn3+  Mn131  1  0.25000000  0.25000000  0.37500000  1
  Li+  Li132  1  0.20000000  0.40000000  0.25000000  1
  Li+  Li133  1  0.15000000  0.55000000  0.12500000  1
  Mn3+  Mn134  1  0.10000000  0.70000000  0.00000000  1
  Mn3+  Mn135  1  0.15000000  0.05000000  0.62500000  1
  Mn3+  Mn136  1  0.10000000  0.20000000  0.50000000  1
  Li+  Li137  1  0.05000000  0.35000000  0.37500000  1
  Mn3+  Mn138  1  0.00000000  0.50000000  0.25000000  1
  Li+  Li139  1  0.00000000  0.00000000  0.75000000  1
  Li+  Li140  1  0.80000000  0.10000000  0.00000000  1
  Ti4+  Ti141  1  0.65000000  0.05000000  0.12500000  1
  Li+  Li142  1  0.60000000  0.20000000  0.00000000  1
  Li+  Li143  1  0.50000000  0.00000000  0.25000000  1
  Li+  Li144  1  0.45000000  0.15000000  0.12500000  1
  Ti4+  Ti145  1  0.40000000  0.30000000  0.00000000  1
  Mn3+  Mn146  1  0.30000000  0.10000000  0.25000000  1
  Mn3+  Mn147  1  0.25000000  0.25000000  0.12500000  1
  Mn3+  Mn148  1  0.20000000  0.40000000  0.00000000  1
  Li+  Li149  1  0.15000000  0.05000000  0.37500000  1
  Ti4+  Ti150  1  0.10000000  0.20000000  0.25000000  1
  Li+  Li151  1  0.05000000  0.35000000  0.12500000  1
  Li+  Li152  1  0.00000000  0.50000000  0.00000000  1
  Li+  Li153  1  0.00000000  0.00000000  0.50000000  1
  Mn3+  Mn154  1  0.50000000  0.00000000  0.00000000  1
  Li+  Li155  1  0.30000000  0.10000000  0.00000000  1
  Mn3+  Mn156  1  0.15000000  0.05000000  0.12500000  1
  Li+  Li157  1  0.10000000  0.20000000  0.00000000  1
  Li+  Li158  1  0.00000000  0.00000000  0.25000000  1
  Mn3+  Mn159  1  0.00000000  0.00000000  0.00000000  1
  O2-  O160  1  0.65000000  0.05000000  0.75000000  1
  O2-  O161  1  0.75000000  0.75000000  0.75000000  1
  O2-  O162  1  0.70000000  0.90000000  0.62500000  1
  O2-  O163  1  0.65000000  0.05000000  0.50000000  1
  O2-  O164  1  0.55000000  0.85000000  0.75000000  1
  O2-  O165  1  0.50000000  1.00000000  0.62500000  1
  O2-  O166  1  0.35000000  0.95000000  0.75000000  1
  O2-  O167  1  0.15000000  0.05000000  0.75000000  1
  O2-  O168  1  0.75000000  0.75000000  0.50000000  1
  O2-  O169  1  0.70000000  0.90000000  0.37500000  1
  O2-  O170  1  0.65000000  0.05000000  0.25000000  1
  O2-  O171  1  0.65000000  0.55000000  0.75000000  1
  O2-  O172  1  0.60000000  0.70000000  0.62500000  1
  O2-  O173  1  0.55000000  0.85000000  0.50000000  1
  O2-  O174  1  0.50000000  1.00000000  0.37500000  1
  O2-  O175  1  0.45000000  0.65000000  0.75000000  1
  F-  F176  1  0.40000000  0.80000000  0.62500000  1
  O2-  O177  1  0.35000000  0.95000000  0.50000000  1
  O2-  O178  1  0.25000000  0.75000000  0.75000000  1
  O2-  O179  1  0.20000000  0.90000000  0.62500000  1
  O2-  O180  1  0.15000000  0.05000000  0.50000000  1
  O2-  O181  1  0.05000000  0.85000000  0.75000000  1
  F-  F182  1  0.00000000  0.00000000  0.62500000  1
  O2-  O183  1  0.85000000  0.95000000  0.75000000  1
  F-  F184  1  0.75000000  0.75000000  0.25000000  1
  O2-  O185  1  0.70000000  0.90000000  0.12500000  1
  O2-  O186  1  0.65000000  0.05000000  0.00000000  1
  O2-  O187  1  0.75000000  0.25000000  0.75000000  1
  O2-  O188  1  0.70000000  0.40000000  0.62500000  1
  O2-  O189  1  0.65000000  0.55000000  0.50000000  1
  O2-  O190  1  0.60000000  0.70000000  0.37500000  1
  O2-  O191  1  0.55000000  0.85000000  0.25000000  1
  O2-  O192  1  0.50000000  1.00000000  0.12500000  1
  O2-  O193  1  0.55000000  0.35000000  0.75000000  1
  F-  F194  1  0.50000000  0.50000000  0.62500000  1
  O2-  O195  1  0.45000000  0.65000000  0.50000000  1
  O2-  O196  1  0.40000000  0.80000000  0.37500000  1
  O2-  O197  1  0.35000000  0.95000000  0.25000000  1
  O2-  O198  1  0.35000000  0.45000000  0.75000000  1
  O2-  O199  1  0.30000000  0.60000000  0.62500000  1
  O2-  O200  1  0.25000000  0.75000000  0.50000000  1
  O2-  O201  1  0.20000000  0.90000000  0.37500000  1
  O2-  O202  1  0.15000000  0.05000000  0.25000000  1
  O2-  O203  1  0.15000000  0.55000000  0.75000000  1
  O2-  O204  1  0.10000000  0.70000000  0.62500000  1
  O2-  O205  1  0.05000000  0.85000000  0.50000000  1
  O2-  O206  1  0.00000000  0.00000000  0.37500000  1
  O2-  O207  1  0.95000000  0.65000000  0.75000000  1
  O2-  O208  1  0.90000000  0.80000000  0.62500000  1
  O2-  O209  1  0.85000000  0.95000000  0.50000000  1
  F-  F210  1  0.75000000  0.75000000  0.00000000  1
  O2-  O211  1  0.70000000  0.90000000  0.87500000  1
  O2-  O212  1  0.75000000  0.25000000  0.50000000  1
  O2-  O213  1  0.70000000  0.40000000  0.37500000  1
  O2-  O214  1  0.65000000  0.55000000  0.25000000  1
  O2-  O215  1  0.60000000  0.70000000  0.12500000  1
  O2-  O216  1  0.55000000  0.85000000  1.00000000  1
  O2-  O217  1  0.50000000  1.00000000  0.87500000  1
  O2-  O218  1  0.60000000  0.20000000  0.62500000  1
  O2-  O219  1  0.55000000  0.35000000  0.50000000  1
  O2-  O220  1  0.50000000  0.50000000  0.37500000  1
  O2-  O221  1  0.45000000  0.65000000  0.25000000  1
  O2-  O222  1  0.40000000  0.80000000  0.12500000  1
  O2-  O223  1  0.35000000  0.95000000  1.00000000  1
  O2-  O224  1  0.45000000  0.15000000  0.75000000  1
  O2-  O225  1  0.40000000  0.30000000  0.62500000  1
  O2-  O226  1  0.35000000  0.45000000  0.50000000  1
  O2-  O227  1  0.30000000  0.60000000  0.37500000  1
  O2-  O228  1  0.25000000  0.75000000  0.25000000  1
  O2-  O229  1  0.20000000  0.90000000  0.12500000  1
  O2-  O230  1  0.15000000  0.05000000  0.00000000  1
  O2-  O231  1  0.25000000  0.25000000  0.75000000  1
  O2-  O232  1  0.20000000  0.40000000  0.62500000  1
  O2-  O233  1  0.15000000  0.55000000  0.50000000  1
  O2-  O234  1  0.10000000  0.70000000  0.37500000  1
  O2-  O235  1  0.05000000  0.85000000  0.25000000  1
  O2-  O236  1  0.00000000  0.00000000  0.12500000  1
  O2-  O237  1  0.05000000  0.35000000  0.75000000  1
  O2-  O238  1  0.00000000  0.50000000  0.62500000  1
  O2-  O239  1  0.95000000  0.65000000  0.50000000  1
  O2-  O240  1  0.90000000  0.80000000  0.37500000  1
  O2-  O241  1  0.85000000  0.95000000  0.25000000  1
  O2-  O242  1  0.85000000  0.45000000  0.75000000  1
  O2-  O243  1  0.80000000  0.60000000  0.62500000  1
  O2-  O244  1  0.75000000  0.25000000  0.25000000  1
  O2-  O245  1  0.70000000  0.40000000  0.12500000  1
  O2-  O246  1  0.65000000  0.55000000  0.00000000  1
  O2-  O247  1  0.60000000  0.70000000  0.87500000  1
  O2-  O248  1  0.60000000  0.20000000  0.37500000  1
  O2-  O249  1  0.55000000  0.35000000  0.25000000  1
  O2-  O250  1  0.50000000  0.50000000  0.12500000  1
  F-  F251  1  0.45000000  0.65000000  0.00000000  1
  O2-  O252  1  0.40000000  0.80000000  0.87500000  1
  O2-  O253  1  0.45000000  0.15000000  0.50000000  1
  O2-  O254  1  0.40000000  0.30000000  0.37500000  1
  O2-  O255  1  0.35000000  0.45000000  0.25000000  1
  O2-  O256  1  0.30000000  0.60000000  0.12500000  1
  O2-  O257  1  0.25000000  0.75000000  0.00000000  1
  O2-  O258  1  0.20000000  0.90000000  0.87500000  1
  O2-  O259  1  0.30000000  0.10000000  0.62500000  1
  O2-  O260  1  0.25000000  0.25000000  0.50000000  1
  O2-  O261  1  0.20000000  0.40000000  0.37500000  1
  O2-  O262  1  0.15000000  0.55000000  0.25000000  1
  O2-  O263  1  0.10000000  0.70000000  0.12500000  1
  O2-  O264  1  0.05000000  0.85000000  0.00000000  1
  O2-  O265  1  0.00000000  1.00000000  0.87500000  1
  O2-  O266  1  0.10000000  0.20000000  0.62500000  1
  O2-  O267  1  0.05000000  0.35000000  0.50000000  1
  O2-  O268  1  0.00000000  0.50000000  0.37500000  1
  O2-  O269  1  0.95000000  0.65000000  0.25000000  1
  O2-  O270  1  0.90000000  0.80000000  0.12500000  1
  O2-  O271  1  0.85000000  0.95000000  0.00000000  1
  O2-  O272  1  0.95000000  0.15000000  0.75000000  1
  O2-  O273  1  0.90000000  0.30000000  0.62500000  1
  O2-  O274  1  0.85000000  0.45000000  0.50000000  1
  O2-  O275  1  0.80000000  0.60000000  0.37500000  1
  O2-  O276  1  0.75000000  0.25000000  0.00000000  1
  O2-  O277  1  0.70000000  0.40000000  0.87500000  1
  O2-  O278  1  0.60000000  0.20000000  0.12500000  1
  O2-  O279  1  0.55000000  0.35000000  1.00000000  1
  O2-  O280  1  0.50000000  0.50000000  0.87500000  1
  O2-  O281  1  0.45000000  0.15000000  0.25000000  1
  O2-  O282  1  0.40000000  0.30000000  0.12500000  1
  O2-  O283  1  0.35000000  0.45000000  1.00000000  1
  O2-  O284  1  0.30000000  0.60000000  0.87500000  1
  O2-  O285  1  0.30000000  0.10000000  0.37500000  1
  O2-  O286  1  0.25000000  0.25000000  0.25000000  1
  O2-  O287  1  0.20000000  0.40000000  0.12500000  1
  O2-  O288  1  0.15000000  0.55000000  0.00000000  1
  O2-  O289  1  0.10000000  0.70000000  0.87500000  1
  O2-  O290  1  0.10000000  0.20000000  0.37500000  1
  O2-  O291  1  0.05000000  0.35000000  0.25000000  1
  O2-  O292  1  0.00000000  0.50000000  0.12500000  1
  O2-  O293  1  0.95000000  0.65000000  0.00000000  1
  O2-  O294  1  0.90000000  0.80000000  0.87500000  1
  O2-  O295  1  0.95000000  0.15000000  0.50000000  1
  O2-  O296  1  0.90000000  0.30000000  0.37500000  1
  F-  F297  1  0.85000000  0.45000000  0.25000000  1
  O2-  O298  1  0.80000000  0.60000000  0.12500000  1
  O2-  O299  1  0.80000000  0.10000000  0.62500000  1
  F-  F300  1  0.60000000  0.20000000  0.87500000  1
  O2-  O301  1  0.45000000  0.15000000  0.00000000  1
  O2-  O302  1  0.40000000  0.30000000  0.87500000  1
  O2-  O303  1  0.30000000  0.10000000  0.12500000  1
  O2-  O304  1  0.25000000  0.25000000  0.00000000  1
  O2-  O305  1  0.20000000  0.40000000  0.87500000  1
  O2-  O306  1  0.10000000  0.20000000  0.12500000  1
  O2-  O307  1  0.05000000  0.35000000  0.00000000  1
  O2-  O308  1  0.00000000  0.50000000  0.87500000  1
  O2-  O309  1  0.95000000  0.15000000  0.25000000  1
  O2-  O310  1  0.90000000  0.30000000  0.12500000  1
  O2-  O311  1  0.85000000  0.45000000  0.00000000  1
  O2-  O312  1  0.80000000  0.60000000  0.87500000  1
  O2-  O313  1  0.80000000  0.10000000  0.37500000  1
  O2-  O314  1  0.30000000  0.10000000  0.87500000  1
  O2-  O315  1  0.10000000  0.20000000  0.87500000  1
  O2-  O316  1  0.95000000  0.15000000  0.00000000  1
  O2-  O317  1  0.90000000  0.30000000  0.87500000  1
  O2-  O318  1  0.80000000  0.10000000  0.12500000  1
  O2-  O319  1  0.80000000  0.10000000  0.87500000  1
