# generated using pymatgen
data_LiCoO2
_symmetry_space_group_name_H-M   'P 1'
_cell_length_a   8.40000000
_cell_length_b   8.40000000
_cell_length_c   8.40000000
_cell_angle_alpha   90.00000000
_cell_angle_beta   90.00000000
_cell_angle_gamma   90.00000000
_symmetry_Int_Tables_number   1
_chemical_formula_structural   LiCoO2
_chemical_formula_sum   'Li16 Co16 O32'
_cell_volume   592.70399941
_cell_formula_units_Z   16
loop_
 _symmetry_equiv_pos_site_id
 _symmetry_equiv_pos_as_xyz
  1  'x, y, z'
loop_
 _atom_type_symbol
 _atom_type_oxidation_number
  Li+  1.0
  Co3+  3.0
  O2-  -2.0
loop_
 _atom_site_type_symbol
 _atom_site_label
 _atom_site_symmetry_multiplicity
 _atom_site_fract_x
 _atom_site_fract_y
 _atom_site_fract_z
 _atom_site_occupancy
  Co3+  Co0  1  0.75000000  0.50000000  0.75000000  1
  Li+  Li1  1  0.75000000  0.75000000  0.50000000  1
  Li+  Li2  1  0.50000000  0.75000000  0.75000000  1
  Li+  Li3  1  0.75000000  0.00000000  0.75000000  1
  Co3+  Co4  1  0.75000000  0.25000000  0.50000000  1
  Li+  Li5  1  0.75000000  0.50000000  0.25000000  1
  Co3+  Co6  1  0.75000000  0.75000000  0.00000000  1
  Co3+  Co7  1  0.50000000  0.25000000  0.75000000  1
  Co3+  Co8  1  0.50000000  0.50000000  0.50000000  1
  Co3+  Co9  1  0.50000000  0.75000000  0.25000000  1
  Li+  Li10  1  0.25000000  0.50000000  0.75000000  1
  Co3+  Co11  1  0.25000000  0.75000000  0.50000000  1
  Co3+  Co12  1  0.00000000  0.75000000  0.75000000  1
  Co3+  Co13  1  0.75000000  0.00000000  0.25000000  1
  Li+  Li14  1  0.75000000  0.25000000  0.00000000  1
  Li+  Li15  1  0.50000000  0.00000000  0.50000000  1
  Li+  Li16  1  0.50000000  0.25000000  0.25000000  1
  Li+  Li17  1  0.50000000  0.50000000  0.00000000  1
  Co3+  Co18  1  0.25000000  0.00000000  0.75000000  1
  Li+  Li19  1  0.25000000  0.25000000  0.50000000  1
  Co3+  Co20  1  0.25000000  0.50000000  0.25000000  1
  Li+  Li21  1  0.25000000  0.75000000  0.00000000  1
  Li+  Li22  1  0.00000000  0.25000000  0.75000000  1
  Li+  Li23  1  0.00000000  0.50000000  0.50000000  1
  Li+  Li24  1  0.00000000  0.75000000  0.25000000  1
  Co3+  Co25  1  0.50000000  0.00000000  0.00000000  1
  Li+  Li26  1  0.25000000  0.00000000  0.25000000  1
  Co3+  Co27  1  0.25000000  0.25000000  0.00000000  1
  Co3+  Co28  1  0.00000000  0.00000000  0.50000000  1
  Co3+  Co29  1  0.00000000  0.25000000  0.25000000  1
  Co3+  Co30  1  0.00000000  0.50000000  0.00000000  1
  Li+  Li31  1  0.00000000  0.00000000  0.00000000  1
  O2-  O32  1  0.50000000  0.75000000  0.50000000  1
  O2-  O33  1  0.50000000  1.00000000  0.25000000  1
  O2-  O34  1  0.25000000  1.00000000  0.50000000  1
  O2-  O35  1  0.50000000  0.25000000  0.50000000  1
  O2-  O36  1  0.50000000  0.50000000  0.25000000  1
  O2-  O37  1  0.50000000  0.75000000  1.00000000  1
  O2-  O38  1  0.50000000  1.00000000  0.75000000  1
  O2-  O39  1  0.25000000  0.50000000  0.50000000  1
  O2-  O40  1  0.25000000  0.75000000  0.25000000  1
  O2-  O41  1  0.25000000  0.00000000  1.00000000  1
  O2-  O42  1  0.00000000  0.75000000  0.50000000  1
  O2-  O43  1  0.00000000  1.00000000  0.25000000  1
  O2-  O44  1  0.75000000  0.00000000  0.50000000  1
  O2-  O45  1  0.50000000  0.25000000  0.00000000  1
  O2-  O46  1  0.50000000  0.50000000  0.75000000  1
  O2-  O47  1  0.25000000  0.25000000  0.25000000  1
  O2-  O48  1  0.25000000  0.50000000  0.00000000  1
  O2-  O49  1  0.25000000  0.75000000  0.75000000  1
  O2-  O50  1  0.00000000  0.25000000  0.50000000  1
  O2-  O51  1  0.00000000  0.50000000  0.25000000  1
  O2-  O52  1  0.00000000  0.75000000  1.00000000  1
  O2-  O53  1  0.00000000  1.00000000  0.75000000  1
  O2-  O54  1  0.75000000  0.50000000  0.50000000  1
  O2-  O55  1  0.75000000  0.75000000  0.25000000  1
  O2-  O56  1  0.75000000  0.00000000  1.00000000  1
  O2-  O57  1  0.25000000  0.25000000  0.75000000  1
  O2-  O58  1  0.00000000  0.25000000  0.00000000  1
  O2-  O59  1  0.00000000  0.50000000  0.75000000  1
  O2-  O60  1  0.75000000  0.25000000  0.25000000  1
  O2-  O61  1  0.75000000  0.50000000  0.00000000  1
  O2-  O62  1  0.75000000  0.75000000  0.75000000  1
  O2-  O63  1  0.75000000  0.25000000  0.75000000  1
