# generated using pymatgen
data_LiCoO2
_symmetry_space_group_name_H-M   'P 1'
_cell_length_a   5.93969696
_cell_length_b   5.93969696
_cell_length_c   5.93969696
_cell_angle_alpha   60.00000000
_cell_angle_beta   60.00000000
_cell_angle_gamma   60.00000000
_symmetry_Int_Tables_number   1
_chemical_formula_structural   LiCoO2
_chemical_formula_sum   'Li4 Co4 O8'
_cell_volume   148.17599985
_cell_formula_units_Z   4
loop_
 _symmetry_equiv_pos_site_id
 _symmetry_equiv_pos_as_xyz
  1  'x, y, z'
loop_
 _atom_type_symbol
 _atom_type_oxidation_number
  Li+  1.0
  Co3+  3.0
  O2-  -2.0
loop_
 _atom_site_type_symbol
 _atom_site_label
 _atom_site_symmetry_multiplicity
 _atom_site_fract_x
 _atom_site_fract_y
 _atom_site_fract_z
 _atom_site_occupancy
  Li+  Li0  1  0.50000000  0.50000000  0.00000000  1
  Li+  Li1  1  0.50000000  0.50000000  0.50000000  1
  Co3+  Co2  1  0.50000000  0.00000000  0.00000000  1
  Li+  Li3  1  0.50000000  0.00000000  0.50000000  1
  Co3+  Co4  1  0.00000000  0.50000000  0.00000000  1
  Li+  Li5  1  0.00000000  0.50000000  0.50000000  1
  Co3+  Co6  1  0.00000000  0.00000000  0.00000000  1
  Co3+  Co7  1  0.00000000  0.00000000  0.50000000  1
  O2-  O8  1  0.25000000  0.25000000  0.75000000  1
  O2-  O9  1  0.25000000  0.25000000  0.25000000  1
  O2-  O10  1  0.25000000  0.75000000  0.75000000  1
  O2-  O11  1  0.25000000  0.75000000  0.25000000  1
  O2-  O12  1  0.75000000  0.25000000  0.75000000  1
  O2-  O13  1  0.75000000  0.25000000  0.25000000  1
  O2-  O14  1  0.75000000  0.75000000  0.75000000  1
  O2-  O15  1  0.75000000  0.75000000  0.25000000  1
