# generated using pymatgen
data_LiF
_symmetry_space_group_name_H-M   'P 1'
_cell_length_a   2.96984848
_cell_length_b   4.20000000
_cell_length_c   5.93969696
_cell_angle_alpha   90.00000000
_cell_angle_beta   90.00000000
_cell_angle_gamma   90.00000000
_symmetry_Int_Tables_number   1
_chemical_formula_structural   LiF
_chemical_formula_sum   'Li4 F4'
_cell_volume   74.08799993
_cell_formula_units_Z   4
loop_
 _symmetry_equiv_pos_site_id
 _symmetry_equiv_pos_as_xyz
  1  'x, y, z'
loop_
 _atom_type_symbol
 _atom_type_oxidation_number
  Li+  1.0
  F-  -1.0
loop_
 _atom_site_type_symbol
 _atom_site_label
 _atom_site_symmetry_multiplicity
 _atom_site_fract_x
 _atom_site_fract_y
 _atom_site_fract_z
 _atom_site_occupancy
  Li+  Li0  1  0.50000000  0.50000000  0.25000000  1.0
  Li+  Li1  1  0.50000000  0.50000000  0.75000000  1
  Li+  Li2  1  0.00000000  0.00000000  0.00000000  1.0
  Li+  Li3  1  0.00000000  0.00000000  0.50000000  1
  F-  F4  1  0.50000000  0.00000000  0.75000000  1.0
  F-  F5  1  0.50000000  0.00000000  0.25000000  1.0
  F-  F6  1  0.00000000  0.50000000  0.50000000  1.0
  F-  F7  1  0.00000000  0.50000000  0.00000000  1.0
