# generated using pymatgen
data_Li6TiMn3O9F
_symmetry_space_group_name_H-M   'P 1'
_cell_length_a   10.28785692
_cell_length_b   11.87939392
_cell_length_c   13.28156617
_cell_angle_alpha   77.07903362
_cell_angle_beta   75.03678257
_cell_angle_gamma   73.22134512
_symmetry_Int_Tables_number   1
_chemical_formula_structural   Li6TiMn3O9F
_chemical_formula_sum   'Li48 Ti8 Mn24 O72 F8'
_cell_volume   1481.75999853
_cell_formula_units_Z   8
loop_
 _symmetry_equiv_pos_site_id
 _symmetry_equiv_pos_as_xyz
  1  'x, y, z'
loop_
 _atom_type_symbol
 _atom_type_oxidation_number
  Li+  1.0
  Ti4+  4.0
  Mn3+  3.0
  O2-  -2.0
  F-  -1.0
loop_
 _atom_site_type_symbol
 _atom_site_label
 _atom_site_symmetry_multiplicity
 _atom_site_fract_x
 _atom_site_fract_y
 _atom_site_fract_z
 _atom_site_occupancy
  Li+  Li0  1  0.80000000  0.20000000  0.90000000  1
  Mn3+  Mn1  1  0.90000000  0.10000000  0.70000000  1
  Ti4+  Ti2  1  0.60000000  0.15000000  0.80000000  1
  Li+  Li3  1  0.30000000  0.20000000  0.90000000  1
  Mn3+  Mn4  1  0.70000000  0.05000000  0.60000000  1
  Li+  Li5  1  0.40000000  0.10000000  0.70000000  1
  Li+  Li6  1  0.10000000  0.15000000  0.80000000  1
  Mn3+  Mn7  1  0.50000000  1.00000000  0.50000000  1
  Li+  Li8  1  0.20000000  0.05000000  0.60000000  1
  Mn3+  Mn9  1  0.00000000  0.00000000  0.50000000  1
  Mn3+  Mn10  1  0.80000000  0.45000000  0.90000000  1
  Li+  Li11  1  0.90000000  0.35000000  0.70000000  1
  Li+  Li12  1  0.60000000  0.40000000  0.80000000  1
  Li+  Li13  1  0.30000000  0.45000000  0.90000000  1
  Li+  Li14  1  0.70000000  0.30000000  0.60000000  1
  Li+  Li15  1  0.40000000  0.35000000  0.70000000  1
  Ti4+  Ti16  1  0.10000000  0.40000000  0.80000000  1
  Li+  Li17  1  0.80000000  0.20000000  0.40000000  1
  Mn3+  Mn18  1  0.50000000  0.25000000  0.50000000  1
  Ti4+  Ti19  1  0.20000000  0.30000000  0.60000000  1
  Li+  Li20  1  0.90000000  0.10000000  0.20000000  1
  Mn3+  Mn21  1  0.60000000  0.15000000  0.30000000  1
  Li+  Li22  1  0.30000000  0.20000000  0.40000000  1
  Li+  Li23  1  0.00000000  0.25000000  0.50000000  1
  Li+  Li24  1  0.70000000  0.05000000  0.10000000  1
  Li+  Li25  1  0.40000000  0.10000000  0.20000000  1
  Ti4+  Ti26  1  0.10000000  0.15000000  0.30000000  1
  Ti4+  Ti27  1  0.50000000  0.00000000  0.00000000  1
  Mn3+  Mn28  1  0.20000000  0.05000000  0.10000000  1
  Mn3+  Mn29  1  0.00000000  0.00000000  0.00000000  1
  Li+  Li30  1  0.80000000  0.70000000  0.90000000  1
  Li+  Li31  1  0.90000000  0.60000000  0.70000000  1
  Ti4+  Ti32  1  0.60000000  0.65000000  0.80000000  1
  Mn3+  Mn33  1  0.30000000  0.70000000  0.90000000  1
  Li+  Li34  1  0.70000000  0.55000000  0.60000000  1
  Li+  Li35  1  0.40000000  0.60000000  0.70000000  1
  Ti4+  Ti36  1  0.10000000  0.65000000  0.80000000  1
  Li+  Li37  1  0.80000000  0.45000000  0.40000000  1
  Li+  Li38  1  0.50000000  0.50000000  0.50000000  1
  Mn3+  Mn39  1  0.20000000  0.55000000  0.60000000  1
  Ti4+  Ti40  1  0.90000000  0.35000000  0.20000000  1
  Mn3+  Mn41  1  0.60000000  0.40000000  0.30000000  1
  Li+  Li42  1  0.30000000  0.45000000  0.40000000  1
  Li+  Li43  1  0.00000000  0.50000000  0.50000000  1
  Li+  Li44  1  0.70000000  0.30000000  0.10000000  1
  Li+  Li45  1  0.40000000  0.35000000  0.20000000  1
  Mn3+  Mn46  1  0.10000000  0.40000000  0.30000000  1
  Li+  Li47  1  0.50000000  0.25000000  0.00000000  1
  Li+  Li48  1  0.20000000  0.30000000  0.10000000  1
  Li+  Li49  1  0.00000000  0.25000000  0.00000000  1
  Mn3+  Mn50  1  0.80000000  0.95000000  0.90000000  1
  Li+  Li51  1  0.90000000  0.85000000  0.70000000  1
  Mn3+  Mn52  1  0.60000000  0.90000000  0.80000000  1
  Li+  Li53  1  0.30000000  0.95000000  0.90000000  1
  Li+  Li54  1  0.70000000  0.80000000  0.60000000  1
  Li+  Li55  1  0.40000000  0.85000000  0.70000000  1
  Mn3+  Mn56  1  0.10000000  0.90000000  0.80000000  1
  Mn3+  Mn57  1  0.80000000  0.70000000  0.40000000  1
  Mn3+  Mn58  1  0.50000000  0.75000000  0.50000000  1
  Li+  Li59  1  0.20000000  0.80000000  0.60000000  1
  Li+  Li60  1  0.90000000  0.60000000  0.20000000  1
  Li+  Li61  1  0.60000000  0.65000000  0.30000000  1
  Mn3+  Mn62  1  0.30000000  0.70000000  0.40000000  1
  Mn3+  Mn63  1  0.00000000  0.75000000  0.50000000  1
  Mn3+  Mn64  1  0.70000000  0.55000000  0.10000000  1
  Li+  Li65  1  0.40000000  0.60000000  0.20000000  1
  Mn3+  Mn66  1  0.10000000  0.65000000  0.30000000  1
  Li+  Li67  1  0.50000000  0.50000000  0.00000000  1
  Li+  Li68  1  0.20000000  0.55000000  0.10000000  1
  Li+  Li69  1  0.00000000  0.50000000  0.00000000  1
  Li+  Li70  1  0.80000000  0.95000000  0.40000000  1
  Mn3+  Mn71  1  0.90000000  0.85000000  0.20000000  1
  Li+  Li72  1  0.60000000  0.90000000  0.30000000  1
  Li+  Li73  1  0.30000000  0.95000000  0.40000000  1
  Li+  Li74  1  0.70000000  0.80000000  0.10000000  1
  Mn3+  Mn75  1  0.40000000  0.85000000  0.20000000  1
  Li+  Li76  1  0.10000000  0.90000000  0.30000000  1
  Li+  Li77  1  0.50000000  0.75000000  0.00000000  1
  Li+  Li78  1  0.20000000  0.80000000  0.10000000  1
  Li+  Li79  1  0.00000000  0.75000000  0.00000000  1
  O2-  O80  1  0.45000000  0.30000000  0.85000000  1
  O2-  O81  1  0.55000000  0.20000000  0.65000000  1
  O2-  O82  1  0.25000000  0.25000000  0.75000000  1
  O2-  O83  1  0.95000000  0.30000000  0.85000000  1
  O2-  O84  1  0.35000000  0.15000000  0.55000000  1
  O2-  O85  1  0.05000000  0.20000000  0.65000000  1
  O2-  O86  1  0.75000000  0.25000000  0.75000000  1
  O2-  O87  1  0.15000000  0.10000000  0.45000000  1
  O2-  O88  1  0.85000000  0.15000000  0.55000000  1
  O2-  O89  1  0.65000000  0.10000000  0.45000000  1
  O2-  O90  1  0.45000000  0.55000000  0.85000000  1
  F-  F91  1  0.55000000  0.45000000  0.65000000  1
  O2-  O92  1  0.25000000  0.50000000  0.75000000  1
  O2-  O93  1  0.95000000  0.55000000  0.85000000  1
  O2-  O94  1  0.35000000  0.40000000  0.55000000  1
  O2-  O95  1  0.05000000  0.45000000  0.65000000  1
  O2-  O96  1  0.75000000  0.50000000  0.75000000  1
  O2-  O97  1  0.45000000  0.30000000  0.35000000  1
  O2-  O98  1  0.15000000  0.35000000  0.45000000  1
  F-  F99  1  0.85000000  0.40000000  0.55000000  1
  F-  F100  1  0.55000000  0.20000000  0.15000000  1
  O2-  O101  1  0.25000000  0.25000000  0.25000000  1
  O2-  O102  1  0.95000000  0.30000000  0.35000000  1
  O2-  O103  1  0.65000000  0.35000000  0.45000000  1
  O2-  O104  1  0.35000000  0.15000000  0.05000000  1
  O2-  O105  1  0.05000000  0.20000000  0.15000000  1
  O2-  O106  1  0.75000000  0.25000000  0.25000000  1
  O2-  O107  1  0.15000000  0.10000000  0.95000000  1
  O2-  O108  1  0.85000000  0.15000000  0.05000000  1
  O2-  O109  1  0.65000000  0.10000000  0.95000000  1
  O2-  O110  1  0.45000000  0.80000000  0.85000000  1
  O2-  O111  1  0.55000000  0.70000000  0.65000000  1
  O2-  O112  1  0.25000000  0.75000000  0.75000000  1
  O2-  O113  1  0.95000000  0.80000000  0.85000000  1
  O2-  O114  1  0.35000000  0.65000000  0.55000000  1
  O2-  O115  1  0.05000000  0.70000000  0.65000000  1
  O2-  O116  1  0.75000000  0.75000000  0.75000000  1
  O2-  O117  1  0.45000000  0.55000000  0.35000000  1
  O2-  O118  1  0.15000000  0.60000000  0.45000000  1
  O2-  O119  1  0.85000000  0.65000000  0.55000000  1
  O2-  O120  1  0.55000000  0.45000000  0.15000000  1
  O2-  O121  1  0.25000000  0.50000000  0.25000000  1
  O2-  O122  1  0.95000000  0.55000000  0.35000000  1
  O2-  O123  1  0.65000000  0.60000000  0.45000000  1
  F-  F124  1  0.35000000  0.40000000  0.05000000  1
  O2-  O125  1  0.05000000  0.45000000  0.15000000  1
  O2-  O126  1  0.75000000  0.50000000  0.25000000  1
  F-  F127  1  0.15000000  0.35000000  0.95000000  1
  O2-  O128  1  0.85000000  0.40000000  0.05000000  1
  O2-  O129  1  0.65000000  0.35000000  0.95000000  1
  O2-  O130  1  0.45000000  0.05000000  0.85000000  1
  O2-  O131  1  0.55000000  0.95000000  0.65000000  1
  F-  F132  1  0.25000000  0.00000000  0.75000000  1
  O2-  O133  1  0.95000000  0.05000000  0.85000000  1
  O2-  O134  1  0.35000000  0.90000000  0.55000000  1
  O2-  O135  1  0.05000000  0.95000000  0.65000000  1
  O2-  O136  1  0.75000000  0.00000000  0.75000000  1
  O2-  O137  1  0.45000000  0.80000000  0.35000000  1
  O2-  O138  1  0.15000000  0.85000000  0.45000000  1
  O2-  O139  1  0.85000000  0.90000000  0.55000000  1
  O2-  O140  1  0.55000000  0.70000000  0.15000000  1
  O2-  O141  1  0.25000000  0.75000000  0.25000000  1
  O2-  O142  1  0.95000000  0.80000000  0.35000000  1
  O2-  O143  1  0.65000000  0.85000000  0.45000000  1
  F-  F144  1  0.35000000  0.65000000  0.05000000  1
  O2-  O145  1  0.05000000  0.70000000  0.15000000  1
  O2-  O146  1  0.75000000  0.75000000  0.25000000  1
  O2-  O147  1  0.15000000  0.60000000  0.95000000  1
  F-  F148  1  0.85000000  0.65000000  0.05000000  1
  O2-  O149  1  0.65000000  0.60000000  0.95000000  1
  O2-  O150  1  0.45000000  0.05000000  0.35000000  1
  O2-  O151  1  0.55000000  0.95000000  0.15000000  1
  O2-  O152  1  0.25000000  0.00000000  0.25000000  1
  O2-  O153  1  0.95000000  0.05000000  0.35000000  1
  O2-  O154  1  0.35000000  0.90000000  0.05000000  1
  O2-  O155  1  0.05000000  0.95000000  0.15000000  1
  O2-  O156  1  0.75000000  0.00000000  0.25000000  1
  O2-  O157  1  0.15000000  0.85000000  0.95000000  1
  O2-  O158  1  0.85000000  0.90000000  0.05000000  1
  O2-  O159  1  0.65000000  0.85000000  0.95000000  1
